ams/cases/wecc/wecc.m
function mpc = WECC
%WECC

%% MATPOWER Case Format : Version 2
mpc.version = '2';

%%-----  Power Flow Data  -----%%
%% system MVA base
mpc.baseMVA = 100;

%% bus data
%	bus_i	type	Pd	Qd	Gs	Bs	area	Vm	Va	baseKV	zone	Vmax	Vmin
mpc.bus = [
	1	1	1122.66077	-56	0	0	1	0.97947	-26.1745	500	1	1.1	0.9;
	2	1	0	0	0	0	1	0.97744	-16.9603	345	1	1.1	0.9;
	3	2	64.1520439	0	0	0	1	1.04	-19.6589	20	1	1.1	0.9;
	4	1	789.107598	-127	0	0	1	0.97518	16.2755	345	1	1.1	0.9;
	5	2	33.5790467	0	0	0	1	0.95	23.5536	22	1	1.1	0.9;
	6	1	0	0	0	-113	1	1.06814	-7.9038	500	1	1.1	0.9;
	7	1	153.323385	-56	0	-155	1	1.00914	-4.6874	345	1	1.1	0.9;
	8	2	64.1520439	0	0	0	1	1	2.2301	22	1	1.1	0.9;
	9	1	89.6204053	23.8	0	0	1	1.00726	-5.2308	230	1	1.1	0.9;
	10	2	33.5790467	0	0	0	1	1	33.7299	20	1	1.1	0.9;
	11	1	57.7368395	70	0	-190	2	1.07205	-23.9351	500	1	1.1	0.9;
	12	2	64.1520439	0	0	0	2	1	-17.8112	26	1	1.1	0.9;
	13	1	0	0	0	-391	2	1.06735	-24.8548	500	1	1.1	0.9;
	14	2	64.1520439	0	0	0	2	0.96	-21.7139	24	1	1.1	0.9;
	15	1	508.982316	207	0	-146	2	1.04856	-29.6406	500	1	1.1	0.9;
	16	1	282.063992	5	0	390	1	1.03559	-3.8744	345	1	1.1	0.9;
	17	2	33.5790467	0	0	0	1	1	-0.8871	22	1	1.1	0.9;
	18	1	395.818111	-69	0	-427	2	1.05593	-29.591	500	1	1.1	0.9;
	19	1	0	0	0	0	2	1.07025	-22.85	500	1	1.1	0.9;
	20	1	0	0	0	0	2	1.06042	-25.9522	500	1	1.1	0.9;
	21	1	0	0	0	0	2	1.04693	-22.1208	500	1	1.1	0.9;
	22	1	0	0	0	0	2	1.02564	-31.4586	500	1	1.1	0.9;
	23	1	0	0	0	0	2	1.05571	-23.3906	500	1	1.1	0.9;
	24	1	0	0	0	0	2	1.04116	-31.0832	500	1	1.1	0.9;
	25	1	0	0	0	0	2	1.05132	-15.5499	500	1	1.1	0.9;
	26	1	0	0	0	0	2	1.04671	-42.3967	500	1	1.1	0.9;
	27	1	0	0	0	0	1	1.06585	-5.7792	500	1	1.1	0.9;
	28	1	0	0	0	0	1	1.06933	-27.9822	500	1	1.1	0.9;
	29	2	0	0	0	0	1	1	24.738	20	1	1.1	0.9;
	30	1	0	1000	0	0	1	1.03634	20.9474	500	1	1.1	0.9;
	31	1	0	0	0	0	1	1.07861	49.237	500	1	1.1	0.9;
	32	1	0	0	0	0	1	0.97855	53.826	230	1	1.1	0.9;
	33	1	0	700	0	0	1	1.00114	62.8749	230	1	1.1	0.9;
	34	2	0	0	0	0	1	1.02	67.7961	20	1	1.1	0.9;
	35	2	33.5790467	0	0	0	1	1.009	2.4615	22	1	1.1	0.9;
	36	1	0	971	0	912	2	1.06032	-42.1554	500	1	1.1	0.9;
	37	1	0	0	0	0	2	1.0809	-46.2256	500	1	1.1	0.9;
	38	1	0	0	0	0	2	1.03195	-47.2901	230	1	1.1	0.9;
	39	2	23.3751258	0	0	0	2	1.02	-45.9803	18	1	1.1	0.9;
	40	1	31.5564199	27	0	0	2	1.02337	-50.9223	230	1	1.1	0.9;
	41	1	0	0	0	0	2	1.03129	-50.652	230	1	1.1	0.9;
	42	2	23.3751258	0	0	0	2	1	-47.3488	18	1	1.1	0.9;
	43	1	689.377829	907.1	0	430	1	1.05257	-4.3661	345	1	1.1	0.9;
	44	2	33.5790467	0	0	0	1	1.05	0.2811	26	1	1.1	0.9;
	45	1	0	-17	0	0	2	1.03475	-47.6289	230	1	1.1	0.9;
	46	2	23.3751258	0	0	0	2	1.02	-47.2682	11.5	1	1.1	0.9;
	47	1	28.2839023	25	0	0	2	1.03402	-47.8387	230	1	1.1	0.9;
	48	1	0	0	0	-80	2	1.07212	-45.4811	500	1	1.1	0.9;
	49	1	74.8004026	65	0	0	2	1.02362	-51.8438	230	1	1.1	0.9;
	50	1	55.4457985	-63.2	0	0	2	1.03256	-51.9003	138	1	1.1	0.9;
	51	1	0	0	0	0	2	1.03663	-50.7167	287	1	1.1	0.9;
	52	1	0	0	0	0	2	1.03663	-50.7167	287	1	1.1	0.9;
	53	1	32.2576736	28	0	0	2	1.02728	-52.1086	230	1	1.1	0.9;
	54	1	188.824266	132.1	0	0	2	1.02516	-50.0567	230	1	1.1	0.9;
	55	1	0	0	0	0	2	1.04304	-47.6632	500	1	1.1	0.9;
	56	1	27.3488972	24	0	0	2	1.02484	-51.8789	230	1	1.1	0.9;
	57	1	28.2839023	25	0	0	2	1.02394	-51.174	230	1	1.1	0.9;
	58	1	207.500992	-6.2	0	0	2	1.03112	-48.9133	230	1	1.1	0.9;
	59	1	0	1654	0	2146	2	1.03832	-47.1488	230	1	1.1	0.9;
	60	1	93.7342546	80.6	0	0	2	1.02073	-48.2552	230	1	1.1	0.9;
	61	1	47.9657582	17.6	0	0	2	1.0293	-49.0304	230	1	1.1	0.9;
	62	1	0	32.2	0	-108	2	1.05209	-44.4925	287	1	1.1	0.9;
	63	1	0	0	0	0	2	1.05866	-42.4751	500	1	1.1	0.9;
	64	2	33.5790467	0	0	0	1	1	56.5947	20	1	1.1	0.9;
	65	1	570.843794	300	0	0	1	1.04928	48.2022	500	1	1.1	0.9;
	66	1	53.7264747	31.25	0	0	1	1.06863	-16.9326	115	1	1.1	0.9;
	67	1	0	160	0	576.85	1	1.06592	-14.5699	230	1	1.1	0.9;
	68	1	0	22	0	0	1	1.08919	-13.3098	500	1	1.1	0.9;
	69	2	33.5790467	0	0	0	1	1.055	-7.94	13.8	1	1.1	0.9;
	70	1	1053.3747	1681	0	792	1	1.06159	-15.076	230	1	1.1	0.9;
	71	1	0	0	0	462	1	1.08964	-13.4178	500	1	1.1	0.9;
	72	1	0	-50	0	0	1	1.07839	-1.3595	500	1	1.1	0.9;
	73	1	0	0	0	0	1	1.07	0.1645	500	1	1.1	0.9;
	74	1	867.682567	394	0	0	1	1.03705	-12.1586	500	1	1.1	0.9;
	75	1	1074.52949	1100	0	1019.35	1	1.08283	-11.123	500	1	1.1	0.9;
	76	3	33.5790467	0	0	0	1	1	0	13.8	1	1.1	0.9;
	77	1	1175.26663	500	0	550	1	1.04947	0.2258	500	1	1.1	0.9;
	78	2	33.5790467	0	0	0	1	1	26.5872	20	1	1.1	0.9;
	79	1	1678.95234	400	0	1200	1	1.04993	12.1085	500	1	1.1	0.9;
	80	1	0	0	0	-220	1	1.05295	-19.5513	500	1	1.1	0.9;
	81	1	0	-97	0	-674	1	1.0674	-17.1477	500	1	1.1	0.9;
	82	1	0	-119	0	-110	1	1.05433	-23.3455	500	1	1.1	0.9;
	83	1	0	0	0	-220	1	1.06195	-5.1981	500	1	1.1	0.9;
	84	1	204.832185	-414	0	-870	1	0.99845	-1.5707	345	1	1.1	0.9;
	85	1	0	0	0	0	1	1.05818	-18.2347	500	1	1.1	0.9;
	86	1	0	0	0	0	1	1.06533	-18.7474	500	1	1.1	0.9;
	87	1	0	0	0	0	1	1.07143	-16.0156	500	1	1.1	0.9;
	88	1	0	0	0	0	1	1.05062	-14.138	500	1	1.1	0.9;
	89	1	0	0	0	0	1	1.06088	-19.8058	500	1	1.1	0.9;
	90	1	0	0	0	0	1	1.07997	-21.7956	500	1	1.1	0.9;
	91	1	0	0	0	0	1	1.06943	-17.2249	500	1	1.1	0.9;
	92	1	0	0	0	0	1	1.0686	-22.4488	500	1	1.1	0.9;
	93	1	0	0	0	0	1	1.0717	-17.8609	500	1	1.1	0.9;
	94	1	0	0	0	0	1	1.07926	-22.0559	500	1	1.1	0.9;
	95	1	0	0	0	0	1	1.06917	-17.2247	500	1	1.1	0.9;
	96	1	0	0	0	0	1	1.06761	-22.7454	500	1	1.1	0.9;
	97	1	0	0	0	0	1	1.07104	-17.8942	500	1	1.1	0.9;
	98	1	0	0	0	0	1	0.97284	8.0442	500	1	1.1	0.9;
	99	1	0	20	0	0	3	1.13097	-34.9741	200	1	1.1	0.9;
	100	1	49.1812647	-77	0	0	3	1.13613	-30.4883	200	1	1.1	0.9;
	101	1	11.6875629	25	0	0	2	1.05298	-46.126	500	1	1.1	0.9;
	102	2	23.3751258	0	0	0	2	0.98	-42.3238	25	1	1.1	0.9;
	103	1	71.2941338	-7.6	0	-91	2	1.04707	-47.682	500	1	1.1	0.9;
	104	1	6.4281596	-0.1	0	0	3	1.1409	-34.1986	200	1	1.1	0.9;
	105	1	1.87234758	0	0	0	3	1.14016	-34.5836	200	1	1.1	0.9;
	106	1	61.9440834	14	0	0	2	1.04927	-49.5273	500	1	1.1	0.9;
	107	1	12.99657	-329	0	-327	2	1.05934	-48.6051	500	1	1.1	0.9;
	108	1	181.764978	32.6	0	-130	2	1.16705	-51.443	200	1	1.1	0.9;
	109	1	9.35005033	21.5	0	0	2	1.04639	-49.7921	500	1	1.1	0.9;
	110	1	0	61.5	0	0	3	1.03727	-31.0686	500	1	1.1	0.9;
	111	2	23.3751258	0	0	0	3	1.02	-15.0791	20	1	1.1	0.9;
	112	1	34.5951862	0	0	-128	3	1.12385	-25.1402	200	1	1.1	0.9;
	113	1	0	0	0	-91	3	1.03454	-27.9316	500	1	1.1	0.9;
	114	1	0	118.5	0	-91	3	1.01342	-32.0699	500	1	1.1	0.9;
	115	2	23.3751258	0	0	0	3	1.05	-35.685	20	1	1.1	0.9;
	116	1	206.636112	54.8	0	-32	3	1.12744	-39.6332	200	1	1.1	0.9;
	117	2	23.3751258	0	0	0	3	1	-30.7816	20	1	1.1	0.9;
	118	1	1323.26587	3491	0	1500	3	0.99816	-38.9938	500	1	1.1	0.9;
	119	1	0	0	0	0	3	1.05026	-24.0934	500	1	1.1	0.9;
	120	1	0	0	0	0	3	1.01142	-38.0294	500	1	1.1	0.9;
	121	1	0	0	0	0	3	1.02786	-30.7891	500	1	1.1	0.9;
	122	1	0	0	0	0	3	0.98098	-46.599	500	1	1.1	0.9;
	123	1	0	0	0	0	3	1.04054	-22.0273	500	1	1.1	0.9;
	124	1	0	0	0	0	3	1.01079	-36.1445	500	1	1.1	0.9;
	125	1	0	0	0	0	3	1.04054	-22.0273	500	1	1.1	0.9;
	126	1	0	0	0	0	3	1.01079	-36.1445	500	1	1.1	0.9;
	127	1	0	0	0	0	3	1.01257	-25.8067	500	1	1.1	0.9;
	128	1	0	0	0	0	3	0.99882	-45.3405	500	1	1.1	0.9;
	129	1	0	0	0	0	3	1.01755	-27.3173	500	1	1.1	0.9;
	130	1	0	0	0	0	3	0.99876	-41.4218	500	1	1.1	0.9;
	131	1	0	0	0	0	2	0.97999	-36.9419	500	1	1.1	0.9;
	132	1	0	0	0	0	2	1.07047	-51.701	500	1	1.1	0.9;
	133	1	0	0	0	0	2	0.97141	-35.059	500	1	1.1	0.9;
	134	1	0	0	0	0	2	1.06807	-49.9922	500	1	1.1	0.9;
	135	1	200.091077	19.6	0	0	2	1.03539	-43.5212	500	1	1.1	0.9;
	136	1	40.9064702	18	0	0	2	1.0101	-52.7598	230	1	1.1	0.9;
	137	2	23.3751258	0	0	0	2	1.02	-25.9732	20	1	1.1	0.9;
	138	1	210.91376	-11.4	0	-319	2	1.05122	-33.0947	500	1	1.1	0.9;
	139	2	23.3751258	0	0	0	2	1.02	-49.6246	20	1	1.1	0.9;
	140	1	745.900265	630	0	0	2	1.01186	-55.7741	230	1	1.1	0.9;
	141	1	47.7320069	-28.2	0	0	2	1.05498	-46.0893	500	1	1.1	0.9;
	142	1	88.2177249	64.5	0	0	2	1.00705	-55.0594	230	1	1.1	0.9;
	143	2	23.3751258	0	0	0	2	1.05	-45.4414	20	1	1.1	0.9;
	144	1	724.161398	1189	0	400	2	1.04087	-49.6789	500	1	1.1	0.9;
	145	1	0	0	0	0	2	1.03821	-50.1247	230	1	1.1	0.9;
	146	1	0	0	0	-196	2	1.06999	-29.3603	500	1	1.1	0.9;
	147	2	33.5790467	0	0	0	2	1.05	-21.0397	22	1	1.1	0.9;
	148	2	23.3751258	0	0	0	2	1.01	-39.5994	20	1	1.1	0.9;
	149	1	728.836423	78	0	0	2	1.006	-51.6818	230	1	1.1	0.9;
	150	1	287.514048	72.8	0	0	2	1.04129	-50.0775	500	1	1.1	0.9;
	151	1	94.9030109	41	0	0	2	1.03694	-47.7607	500	1	1.1	0.9;
	152	1	0	0	0	0	2	1.06119	-48.945	500	1	1.1	0.9;
	153	1	249.178841	-10.8	0	-190	2	0.99489	-51.6324	230	1	1.1	0.9;
	154	1	153.691297	81.7	0	-60	1	1.04289	-2.416	345	1	1.1	0.9;
	155	1	11.3832968	11.9	0	0	1	1.04464	-3.3929	345	1	1.1	0.9;
	156	1	49.6969891	-7.9	0	0	1	1.04624	-3.9585	230	1	1.1	0.9;
	157	1	38.9852732	38.4	0	-220	1	1.03705	4.8898	345	1	1.1	0.9;
	158	2	33.5790467	0	0	0	1	1.05	9.6052	20	1	1.1	0.9;
	159	1	0	12.8	0	0	1	1.05596	-2.0072	345	1	1.1	0.9;
	160	1	85.6265691	100	0	0	1	1.04453	0.6143	230	1	1.1	0.9;
	161	2	33.5790467	0	0	0	1	1	3.414	20	1	1.1	0.9;
	162	1	0	0	0	0	1	1.03679	-2.4413	345	1	1.1	0.9;
	163	1	10.6109788	11.5	0	-18	1	1.04044	-1.4027	345	1	1.1	0.9;
	164	1	47.4136139	71.4	0	0	1	1.03514	-1.092	345	1	1.1	0.9;
	165	1	127.264587	-43	0	-50	1	1.0519	-0.5455	345	1	1.1	0.9;
	166	1	62.1212364	78.5	0	0	1	1.03911	-3.4207	345	1	1.1	0.9;
	167	1	0	0	0	0	3	1.06106	-19.7689	500	1	1.1	0.9;
	168	1	0	0	0	0	3	1.02557	-31.6678	500	1	1.1	0.9;
	169	1	0	0	0	0	3	1.06179	-19.0138	500	1	1.1	0.9;
	170	1	0	0	0	0	3	1.02702	-31.6971	500	1	1.1	0.9;
	171	1	0	0	0	0	3	1.05696	-17.4396	500	1	1.1	0.9;
	172	1	0	0	0	0	3	1.03194	-37.1499	500	1	1.1	0.9;
	173	1	0	0	0	0	2	1.04651	-48.2385	500	1	1.1	0.9;
	174	1	0	0	0	0	2	1.05458	-49.3078	500	1	1.1	0.9;
	175	1	0	0	0	0	2	1.04625	-48.2334	500	1	1.1	0.9;
	176	1	0	0	0	0	2	1.0547	-49.3092	500	1	1.1	0.9;
	177	1	0	0	0	0	2	1.04598	-48.2211	500	1	1.1	0.9;
	178	1	0	0	0	0	2	1.05705	-49.2854	500	1	1.1	0.9;
	179	1	0	0	0	-220	1	0.98437	-6.6858	500	1	1.1	0.9;
];

%% generator data
%	bus	Pg	Qg	Qmax	Qmin	Vg	mBase	status	Pmax	Pmin	Pc1	Pc2	Qc1min	Qc1max	Qc2min	Qc2max	ramp_agc	ramp_10	ramp_30	ramp_q	apf
mpc.gen = [
	3	800	123.043	300	-300	1.04	1600	1	1549.12124	0	0	0	0	0	0	0	0	0	0	0	0;
	5	1048	-132.905	400	-400	0.95	2100	1	1233.85217	0	0	0	0	0	0	0	0	0	0	0	0;
	8	2160	-30.469	700	-500	1	4300	1	1909.97615	0	0	0	0	0	0	0	0	0	0	0	0;
	10	2050	464.829	900	-900	1	4100	1	616.389384	0	0	0	0	0	0	0	0	0	0	0	0;
	12	1690	195.571	700	-280	1	3400	1	1263.34144	0	0	0	0	0	0	0	0	0	0	0	0;
	14	2640	378.08	1300	-900	0.96	5300	1	4039.5468	0	0	0	0	0	0	0	0	0	0	0	0;
	17	962	148.778	300	-300	1	2000	1	569.218949	0	0	0	0	0	0	0	0	0	0	0	0;
	29	4450	1011.075	4000	-4000	1	8900	1	100	0	0	0	0	0	0	0	0	0	0	0	0;
	34	4480	1150.177	5320	-3500	1.02	9000	1	100	0	0	0	0	0	0	0	0	0	0	0	0;
	35	1640	285.666	600	-525	1.009	3300	1	976.839274	0	0	0	0	0	0	0	0	0	0	0	0;
	39	200	-52.159	268	-134	1.02	400	1	477.767694	0	0	0	0	0	0	0	0	0	0	0	0;
	42	325	68.266	300	-220	1	650	1	760.648742	0	0	0	0	0	0	0	0	0	0	0	0;
	44	1780	534.593	850	-440	1.05	3600	1	2199.25194	0	0	0	0	0	0	0	0	0	0	0	0;
	46	110	29.078	100	-100	1.02	220	1	992.853992	0	0	0	0	0	0	0	0	0	0	0	0;
	64	2910	953.299	1500	-1000	1	5800	1	1977.19681	0	0	0	0	0	0	0	0	0	0	0	0;
	69	1301	431.493	692	-711	1.055	2600	1	1862.6121	0	0	0	0	0	0	0	0	0	0	0	0;
	76	5174.765	855.276	2649	-1850	1	10400	1	1363.25925	0	0	0	0	0	0	0	0	0	0	0	0;
	78	9950	1854.073	5780	-2000	1	20000	1	6857.4984	0	0	0	0	0	0	0	0	0	0	0	0;
	102	765	-206.264	330	-310	0.98	1500	1	2000.89292	0	0	0	0	0	0	0	0	0	0	0	0;
	111	1057	25.675	400	-400	1.02	2100	1	607.049087	0	0	0	0	0	0	0	0	0	0	0	0;
	115	594	192.348	300	-300	1.05	1200	1	834.649543	0	0	0	0	0	0	0	0	0	0	0	0;
	117	3467	1654.42	2500	-1000	1	6900	1	284.443836	0	0	0	0	0	0	0	0	0	0	0	0;
	137	982.7	-128.764	300	-300	1.02	2000	1	239.396233	0	0	0	0	0	0	0	0	0	0	0	0;
	139	3195	1032.512	2000	-900	1.02	6400	1	935.793836	0	0	0	0	0	0	0	0	0	0	0	0;
	143	1690	593.821	900	-400	1.05	3400	1	620.070776	0	0	0	0	0	0	0	0	0	0	0	0;
	147	1680	446.627	700	-300	1.05	3400	1	2086.45936	0	0	0	0	0	0	0	0	0	0	0	0;
	148	2200	393.721	600	-600	1.01	4400	1	645.143151	0	0	0	0	0	0	0	0	0	0	0	0;
	158	1665	-31.368	9999	-9999	1.05	3300	1	1641.30194	0	0	0	0	0	0	0	0	0	0	0	0;
	161	445	91.733	9999	-9999	1	900	1	557.420203	0	0	0	0	0	0	0	0	0	0	0	0;
];

%% branch data
%	fbus	tbus	r	x	b	rateA	rateB	rateC	ratio	angle	status	angmin	angmax
mpc.branch = [
	2	7	0.00179	0.01988	2.576	6000	0	0	0	0	1	-360	360;
	4	16	0.00977	0.11	2	6000	0	0	0	0	1	-360	360;
	4	159	0.00811	0.1369	2.4348	6000	0	0	0	0	1	-360	360;
	6	27	-0	-0.00408	0	6000	0	0	0	0	1	-360	360;
	7	16	0.0005	0.0053	0.0882	61.3524504	0	0	0	0	1	-360	360;
	7	162	0.0048	0.0436	0.7078	61.3524504	0	0	0	0	1	-360	360;
	11	19	-0	-0.00634	0	61.3524504	0	0	0	0	1	-360	360;
	11	21	-0	-0.01188	0	61.3524504	0	0	0	0	1	-360	360;
	11	138	0.0028	0.0211	1.0194	286.388316	0	1630	0	0	1	-360	360;
	13	20	-0	-0.00634	0	6000	0	0	0	0	1	-360	360;
	13	23	-0	-0.00826	0	6000	0	0	0	0	1	-360	360;
	13	25	-0	-0.01795	0	6000	0	0	0	0	1	-360	360;
	13	28	-0	-0.00612	0	6000	0	0	0	0	1	-360	360;
	15	18	0.0004	0.0096	0.9038	6000	0	0	0	0	1	-360	360;
	15	18	0.0004	0.0096	0.9038	6000	0	0	0	0	1	-360	360;
	15	135	0.00259	0.02967	2.153	286.388316	0	1800	0	0	1	-360	360;
	15	135	0.00259	0.02967	2.153	286.388316	0	1800	0	0	1	-360	360;
	18	22	-0	-0.01188	0	6000	0	0	0	0	1	-360	360;
	18	24	-0	-0.00826	0	6000	0	0	0	0	1	-360	360;
	19	20	0.00077	0.01804	1.39842	61.3524504	0	0	0	0	1	-360	360;
	21	22	0.00241	0.05865	4.8656	61.3524504	0	0	0	0	1	-360	360;
	23	24	0.00179	0.04244	3.3922	6000	0	0	0	0	1	-360	360;
	25	26	0.00207	0.04959	3.9516	6000	0	0	0	0	1	-360	360;
	26	138	-0	-0.01795	0	286.388316	0	0	0	0	1	-360	360;
	27	28	0.00177	0.04189	3.3446	6000	0	0	0	0	1	-360	360;
	30	31	0.0035	0.07	4.606	6000	0	0	0	0	1	-360	360;
	30	79	0.00083	0.0239	3.3	218.694979	0	0	0	0	1	-360	360;
	32	33	0.002	0.02	0.8	6000	0	0	0	0	1	-360	360;
	36	37	0.00074	0.01861	1.40264	6000	0	0	0	0	1	-360	360;
	36	55	0.00082	0.01668	1.18802	6000	0	0	0	0	1	-360	360;
	36	63	-0	0.00159	0.12002	6000	0	0	0	0	1	-360	360;
	36	63	-0	0.00159	0.12002	6000	0	0	0	0	1	-360	360;
	38	45	0.00221	0.03346	0.07338	6000	0	0	0	0	1	-360	360;
	38	47	0.0029	0.038	0.0824	6000	0	0	0	0	1	-360	360;
	38	58	0.00309	0.04677	0.1008	6000	0	0	0	0	1	-360	360;
	38	59	0.00226	0.03422	0.07506	6000	0	0	0	0	1	-360	360;
	40	54	0.00047	0.00723	0.01624	6000	0	0	0	0	1	-360	360;
	40	57	0.00035	0.00536	0.01204	6000	0	0	0	0	1	-360	360;
	41	49	0.0022	0.03422	0.07716	6000	0	0	0	0	1	-360	360;
	41	49	0.00238	0.03669	0.08284	6000	0	0	0	0	1	-360	360;
	41	56	0.00201	0.03074	0.06886	6000	0	0	0	0	1	-360	360;
	41	57	0.00281	0.04296	0.09648	6000	0	0	0	0	1	-360	360;
	43	159	0.0018	0.0245	0.4392	6000	0	0	0	0	1	-360	360;
	43	159	0.0018	0.0245	0.4392	6000	0	0	0	0	1	-360	360;
	45	47	0.00029	0.00434	0.0095	6000	0	0	0	0	1	-360	360;
	47	54	0.00229	0.01583	0.0306	6000	0	0	0	0	1	-360	360;
	47	54	0.00229	0.01583	0.0306	6000	0	0	0	0	1	-360	360;
	47	58	0.00141	0.00967	0.0194	6000	0	0	0	0	1	-360	360;
	47	58	0.00141	0.00967	0.0194	6000	0	0	0	0	1	-360	360;
	47	58	0.00161	0.00971	0.01928	6000	0	0	0	0	1	-360	360;
	47	58	0.00161	0.00971	0.01928	6000	0	0	0	0	1	-360	360;
	47	59	0.00027	0.00393	0.00918	6000	0	0	0	0	1	-360	360;
	47	59	0.00027	0.00393	0.00918	6000	0	0	0	0	1	-360	360;
	47	59	0.00027	0.00393	0.00918	6000	0	0	0	0	1	-360	360;
	47	61	0.00138	0.01116	0.0247	6000	0	0	0	0	1	-360	360;
	47	61	0.00138	0.01116	0.0247	6000	0	0	0	0	1	-360	360;
	48	63	0.00083	0.01884	1.66668	6000	0	0	0	0	1	-360	360;
	49	56	0.00037	0.00366	0.0083	6000	0	0	0	0	1	-360	360;
	49	57	0.00055	0.00586	0.01246	6000	0	0	0	0	1	-360	360;
	51	62	0.0107	0.07905	0.3667	6000	0	0	0	0	1	-360	360;
	52	62	0.0107	0.07905	0.3667	6000	0	0	0	0	1	-360	360;
	53	56	0.00073	0.01025	0.02558	6000	0	0	0	0	1	-360	360;
	53	56	0.00073	0.01025	0.02558	6000	0	0	0	0	1	-360	360;
	54	57	0.00119	0.01244	0.02798	6000	0	0	0	0	1	-360	360;
	54	57	0.00119	0.01244	0.02798	6000	0	0	0	0	1	-360	360;
	54	61	0.00128	0.00979	0.0212	6000	0	0	0	0	1	-360	360;
	56	57	0.0011	0.01189	0.02514	6000	0	0	0	0	1	-360	360;
	60	136	0.0014	0.0264	0.102	6000	0	3070	0	0	1	-360	360;
	60	149	0.00065	0.01187	0.04672	6000	0	3070	0	0	1	-360	360;
	60	149	0.00065	0.01187	0.04672	6000	0	3070	0	0	1	-360	360;
	63	138	0.00179	0.02524	0.53546	6000	0	0	0	0	1	-360	360;
	63	138	0.00179	0.02524	0.53546	6000	0	0	0	0	1	-360	360;
	63	141	0.0002	0.0041	0.2962	6000	0	0	0	0	1	-360	360;
	65	77	0.0007	0.074	4.87	6000	0	0	0	0	1	-360	360;
	67	70	6e-05	0.00131	0.00378	6000	0	3020	0	0	1	-360	360;
	67	70	6e-05	0.00116	0.00332	6000	0	3020	0	0	1	-360	360;
	68	71	1e-05	0.0003	0.01434	6000	0	3450	0	0	1	-360	360;
	68	71	1e-05	0.0003	0.01844	6000	0	3450	0	0	1	-360	360;
	68	75	0.00023	0.00451	0.3332	6000	0	2175	0	0	1	-360	360;
	68	75	0.0002	0.00446	0.305	6000	0	2175	0	0	1	-360	360;
	72	74	0.00179	0.01405	3.68	6000	0	0	0	0	1	-360	360;
	73	77	0.00113	0.02069	1.85526	6000	0	0	0	0	1	-360	360;
	74	75	0.00196	0.03304	1.88	6000	0	0	0	0	1	-360	360;
	74	77	0.00142	0.02258	1.88	6000	0	0	0	0	1	-360	360;
	75	77	0.0012	0.02316	1.7152	6000	0	0	0	0	1	-360	360;
	75	77	0.0003	0.02	3.6	6000	0	0	0	0	1	-360	360;
	75	81	0.00063	0.01412	1.09756	6000	0	3450	0	0	1	-360	360;
	75	81	0.00109	0.02408	1.55542	6000	0	3020	0	0	1	-360	360;
	75	81	0.00108	0.02409	1.55348	6000	0	3020	0	0	1	-360	360;
	77	79	0.0002	0.0082	1.3	6000	0	0	0	0	1	-360	360;
	77	79	0.0002	0.0082	1.3	6000	0	0	0	0	1	-360	360;
	80	98	0.00264	0.05356	5.29066	6000	0	3600	0	0	1	-360	360;
	80	179	-0	-0.02667	0	6000	0	1732	0	0	1	-360	360;
	81	86	0.00041	0.00737	0.72694	6000	0	3450	0	0	1	-360	360;
	81	90	0.00066	0.01266	0.95976	6000	0	3020	0	0	1	-360	360;
	81	94	0.00066	0.01266	0.95976	6000	0	3020	0	0	1	-360	360;
	82	88	0.00072	0.01382	1.27572	6000	0	3600	0	0	1	-360	360;
	82	93	0.00078	0.01502	1.1381	6000	0	3020	0	0	1	-360	360;
	82	97	0.00074	0.01413	1.06634	6000	0	3020	0	0	1	-360	360;
	82	167	-0	-0.0072	0	704.179381	0	1800	0	0	1	-360	360;
	82	169	-0	-0.00864	0	704.179381	0	1800	0	0	1	-360	360;
	82	171	-0	-0.01	0	704.179381	0	0	0	0	1	-360	360;
	83	98	-0	-0.02667	0	6000	0	1732	0	0	1	-360	360;
	84	155	0.0062	0.0673	1.1156	6000	0	0	0	0	1	-360	360;
	85	87	0.0006	0.01036	1.01456	6000	0	3450	0	0	1	-360	360;
	85	89	0.00012	0.00238	0.21926	6000	0	3600	0	0	1	-360	360;
	85	179	0.00122	0.02373	2.2071	6000	0	3600	0	0	1	-360	360;
	86	87	-0	-0.01263	0	6000	0	2000	0	0	1	-360	360;
	88	89	-0	-0.00858	0	6000	0	2000	0	0	1	-360	360;
	90	91	-0	-0.01263	0	6000	0	2400	0	0	1	-360	360;
	91	92	0.00074	0.01428	1.0822	6000	0	3020	0	0	1	-360	360;
	92	93	-0	-0.01263	0	6000	0	2400	0	0	1	-360	360;
	94	95	-0	-0.01263	0	6000	0	2000	0	0	1	-360	360;
	95	96	0.00074	0.01428	1.0822	6000	0	3020	0	0	1	-360	360;
	96	97	-0	-0.01263	0	6000	0	2000	0	0	1	-360	360;
	99	100	0.02482	0.16938	0.20232	6000	0	838	0	0	1	-360	360;
	99	116	0.0148	0.10101	0.12066	6000	0	838	0	0	1	-360	360;
	100	104	0.01382	0.09268	0.1106	6000	0	747	0	0	1	-360	360;
	100	105	0.01668	0.11381	0.13608	6000	0	838	0	0	1	-360	360;
	100	112	0.01113	0.06678	0.07286	6000	0	752	0	0	1	-360	360;
	100	112	0.0105	0.0654	0.0686	6000	0	602	0	0	1	-360	360;
	100	112	0.01105	0.06642	0.0716	6000	0	752	0	0	1	-360	360;
	100	116	0.03903	0.27403	0.31072	6000	0	747	0	0	1	-360	360;
	101	103	0.00079	0.01937	1.3285	6000	0	0	0	0	1	-360	360;
	101	107	0.00087	0.02087	1.4571	6000	0	0	0	0	1	-360	360;
	101	107	0.00087	0.02087	1.4571	6000	0	0	0	0	1	-360	360;
	103	106	0.00083	0.01985	0	6000	0	2450	0	0	1	-360	360;
	103	133	0.00093	0.03644	1.3895	6000	0	2450	0	0	1	-360	360;
	103	134	0.00072	0.016	1.0879	6000	0	2450	0	0	1	-360	360;
	104	116	0.03058	0.2046	0.24472	6000	0	747	0	0	1	-360	360;
	105	116	0.02235	0.16106	0.18342	6000	0	838	0	0	1	-360	360;
	106	107	0.00153	0.0147	0	6000	0	1560	0	0	1	-360	360;
	106	109	0.00053	0.01297	0	6000	0	2450	0	0	1	-360	360;
	107	132	2e-05	-0.01331	0	6000	0	1800	0	0	1	-360	360;
	107	134	2e-05	-0.00998	0	6000	0	2450	0	0	1	-360	360;
	107	173	-0	-0.00935	0	6000	0	2134	0	0	1	-360	360;
	107	175	-0	-0.00944	0	6000	0	2134	0	0	1	-360	360;
	107	177	-0	-0.00935	0	6000	0	2134	0	0	1	-360	360;
	110	119	-0	-0.01	0	6000	0	2667	0	0	1	-360	360;
	110	172	-0	-0.01	0	6000	0	0	0	0	1	-360	360;
	113	123	2e-05	-0.00998	0	6000	0	1800	0	0	1	-360	360;
	113	125	2e-05	-0.00998	0	6000	0	1800	0	0	1	-360	360;
	113	168	-0	-0.0072	0	6000	0	1800	0	0	1	-360	360;
	113	170	-0	-0.0072	0	6000	0	1800	0	0	1	-360	360;
	114	124	1e-05	-0.00666	0	6000	0	1800	0	0	1	-360	360;
	114	126	1e-05	-0.00666	0	6000	0	1800	0	0	1	-360	360;
	114	127	1e-05	-0.0112	0	6000	0	2667	0	0	1	-360	360;
	114	129	1e-05	-0.0072	0	6000	0	2667	0	0	1	-360	360;
	118	122	-0	-0.01	0	6000	0	2667	0	0	1	-360	360;
	118	128	1e-05	-0.0112	0	6000	0	2667	0	0	1	-360	360;
	118	130	1e-05	-0.0036	0	6000	0	2667	0	0	1	-360	360;
	118	131	1e-05	-0.00755	0	6000	0	0	0	0	1	-360	360;
	118	133	1e-05	-0.01098	0	6000	0	2450	0	0	1	-360	360;
	119	120	0.00076	0.01952	1.8245	6000	0	2894	0	0	1	-360	360;
	120	121	-0	-0.01	0	6000	0	2667	0	0	1	-360	360;
	121	122	0.00082	0.02119	1.9842	6000	0	2894	0	0	1	-360	360;
	123	124	0.0014	0.02338	1.475	6000	0	2396	0	0	1	-360	360;
	125	126	0.0014	0.02338	1.475	6000	0	2396	0	0	1	-360	360;
	127	128	0.00154	0.03409	2.3114	6000	0	2450	0	0	1	-360	360;
	129	130	0.00095	0.02102	1.4252	6000	0	2450	0	0	1	-360	360;
	131	132	0.00165	0.05719	2.4774	6000	0	2450	0	0	1	-360	360;
	135	151	0.00042	0.00905	0.66794	6000	0	3600	0	0	1	-360	360;
	136	142	0.0019	0.0258	0.0984	6000	0	2320	0	0	1	-360	360;
	136	149	0.00845	0.07034	0.15954	6000	0	1160	0	0	1	-360	360;
	138	141	0.00193	0.02779	4.6712	6000	0	3600	0	0	1	-360	360;
	138	146	0.00056	0.01415	1.0429	286.388316	0	3600	0	0	1	-360	360;
	140	142	0.0011	0.0127	0.048	6000	0	2320	0	0	1	-360	360;
	141	144	0.00028	0.00753	0.51736	6000	0	3600	0	0	1	-360	360;
	141	144	0.00035	0.0075	0.5536	6000	0	3600	0	0	1	-360	360;
	141	146	0.0019	0.031	4.1402	286.388316	0	3600	0	0	1	-360	360;
	141	150	0.0006	0.0128	0.9462	6000	0	3600	0	0	1	-360	360;
	141	152	0.00044	0.01125	0.8292	6000	0	3600	0	0	1	-360	360;
	141	152	0.00044	0.01125	0.8292	6000	0	3600	0	0	1	-360	360;
	142	145	0.00138	0.05399	0.15252	6000	0	2320	0	0	1	-360	360;
	142	153	0.0032	0.0395	0.144	6000	0	2320	0	0	1	-360	360;
	144	150	0.00021	0.00457	0.32336	6000	0	3600	0	0	1	-360	360;
	149	153	0.00285	0.03649	0.12656	6000	0	2320	0	0	1	-360	360;
	149	153	0.00138	0.03399	0.11252	6000	0	2320	0	0	1	-360	360;
	150	151	0.0004	0.0093	0.6856	6000	0	3600	0	0	1	-360	360;
	152	174	-0	-0.00935	0	6000	0	2134	0	0	1	-360	360;
	152	176	-0	-0.00935	0	6000	0	2134	0	0	1	-360	360;
	152	178	-0	-0.0084	0	6000	0	2100	0	0	1	-360	360;
	154	155	0.0024	0.0332	0.5849	6000	0	0	0	0	1	-360	360;
	154	157	0.0052	0.0602	1.01	6000	0	0	0	0	1	-360	360;
	154	157	0.0049	0.0537	0.8843	6000	0	0	0	0	1	-360	360;
	154	159	0.0017	0.0225	0.3992	6000	0	0	0	0	1	-360	360;
	154	159	0.0021	0.0238	0.3845	6000	0	0	0	0	1	-360	360;
	154	164	0.0012	0.0172	0.2987	6000	0	0	0	0	1	-360	360;
	154	166	0.0008	0.0106	0.2039	6000	0	0	0	0	1	-360	360;
	155	166	0.0016	0.0226	0.381	6000	0	0	0	0	1	-360	360;
	156	160	0.0108	0.0965	0.3296	6000	0	0	0	0	1	-360	360;
	157	163	0.0096	0.0878	1.4265	6000	0	0	0	0	1	-360	360;
	157	164	0.0034	0.0392	0.6524	6000	0	0	0	0	1	-360	360;
	157	165	0.0034	0.0374	0.6208	6000	0	0	0	0	1	-360	360;
	157	165	0.0034	0.0372	0.6182	6000	0	0	0	0	1	-360	360;
	159	165	0.0038	0.034	0.5824	6000	0	0	0	0	1	-360	360;
	159	165	0.0032	0.0349	0.5722	6000	0	0	0	0	1	-360	360;
	167	168	0.00103	0.02338	1.5804	6000	0	3020	0	0	1	-360	360;
	169	170	0.00107	0.0247	1.527	6000	0	3020	0	0	1	-360	360;
	171	172	0.00103	0.0323	2.796	6000	0	0	0	0	1	-360	360;
	173	174	0.00123	0.02659	1.98702	6000	0	3600	0	0	1	-360	360;
	175	176	0.00123	0.02662	1.9888	6000	0	3600	0	0	1	-360	360;
	177	178	0.00112	0.02517	1.83586	6000	0	3600	0	0	1	-360	360;
	1	2	0	0.0146	0	6000	0	0	1	0	1	-360	360;
	1	3	0	0.0173	0	6000	0	0	0.9545	0	1	-360	360;
	4	5	0	0.01238	0	6000	0	0	1	0	1	-360	360;
	4	10	0	0.015	0	6000	0	0	1	0	1	-360	360;
	6	7	0	0.011	0	6000	0	0	1.063	0	1	-360	360;
	6	7	0	0.011	0	6000	0	0	1.063	0	1	-360	360;
	7	8	0	0.0059	0	6000	0	3000	1	0	1	-360	360;
	7	9	0.00028	0.0138	0	6000	0	430	1	0	1	-360	360;
	7	9	0.00029	0.0139	0	6000	0	430	1	0	1	-360	360;
	11	12	0	0.00666	0	6000	0	2000	1.08	0	1	-360	360;
	15	14	6e-05	0.00495	0	6000	0	3066	1.1061	0	1	-360	360;
	16	17	0	0.006	0	6000	0	0	1.0435	0	1	-360	360;
	30	29	0	0.0015	0	6000	0	0	1.05	0	1	-360	360;
	31	32	0	0.01	0	6000	0	0	1.1	0	1	-360	360;
	33	34	0	0.002	0	6000	0	0	1	0	1	-360	360;
	84	35	0	0.0046	0	6000	0	2000	1	0	1	-360	360;
	37	47	0.00013	0.00693	0	6000	0	0	1.05	0	1	-360	360;
	38	39	0.0005	0.0238	0	6000	0	0	1	0	1	-360	360;
	41	42	0.00058	0.02535	0	6000	0	0	1.0491	0	1	-360	360;
	43	44	0	0.0052	0	6000	0	0	1.025	0	1	-360	360;
	47	46	0.00499	0.11473	0	6000	0	0	1.0478	0	1	-360	360;
	48	47	0.00026	0.01386	0	6000	0	0	1.05	0	1	-360	360;
	51	50	0.00059	0.01491	0	6000	0	0	1.0017	0	1	-360	360;
	52	50	0.00059	0.01491	0	6000	0	0	1.0017	0	1	-360	360;
	53	50	0.0003	0.0133	0	6000	0	0	1	0	1	-360	360;
	53	50	0.0003	0.0134	0	6000	0	0	1	0	1	-360	360;
	55	54	0.00013	0.01386	0	6000	0	0	1.0106	0	1	-360	360;
	55	54	0.00013	0.01386	0	6000	0	0	1.0106	0	1	-360	360;
	59	60	0	0.00115	0	6000	0	0	1.0133	0	1	-360	360;
	63	62	0.0002	0.02338	0	6000	0	0	0.9789	0	1	-360	360;
	65	64	0	0.005	0	6000	0	0	1.09	0	1	-360	360;
	67	66	0.00089	0.0299	0	6000	0	250	0.9873	0	1	-360	360;
	68	67	0.0002	0.01181	0	6000	0	1008	1.0238	0	1	-360	360;
	68	67	9e-05	0.00735	0	6000	0	1300	1.0238	0	1	-360	360;
	67	69	0	0.01034	0	6000	0	2000	1.0455	0	1	-360	360;
	71	70	0	0.00221	0	6000	0	2500	1.0234	0	1	-360	360;
	75	76	0	0.00375	0	6000	0	5000	1.0977	0	1	-360	360;
	79	78	0	0.0025	0	6000	0	0	1.066	0	1	-360	360;
	83	84	0	0.0072	0	6000	0	1500	1.05	0	1	-360	360;
	101	102	0	0.0098	0	6000	0	0	1.05	0	1	-360	360;
	108	107	0.0003	0.0174	0	6000	0	840	1.119	0	1	-360	360;
	108	107	0.0002	0.0119	0	6000	0	1120	1.119	0	1	-360	360;
	111	112	0	0.02281	0	6000	0	0	0.9174	0	1	-360	360;
	112	113	0.0001	0.0174	0	6000	0	840	1.119	0	1	-360	360;
	115	116	0	0.01815	0	6000	0	0	0.9091	0	1	-360	360;
	116	118	0.0002	0.0125	0	6000	0	1120	1.119	0	1	-360	360;
	117	118	0	0.00448	0	6000	0	0	0.9452	0	1	-360	360;
	137	138	0	0.01512	0	6000	0	0	0.996	0	1	-360	360;
	139	140	0	0.00365	0	6000	0	0	0.9787	0	1	-360	360;
	143	144	0	0.00516	0	6000	0	0	0.9843	0	1	-360	360;
	144	145	0	0.005	0	6000	0	0	1	0	1	-360	360;
	146	147	0	0.0098	0	61.3524504	0	0	1.05	0	1	-360	360;
	148	149	0	0.01026	0	6000	0	0	0.9871	0	1	-360	360;
	152	153	0	0.01149	0	6000	0	1120	1.0631	0	1	-360	360;
	152	153	0	0.01149	0	6000	0	1120	1.0631	0	1	-360	360;
	152	153	0	0.01149	0	6000	0	1120	1.0631	0	1	-360	360;
	155	156	0.0003	0.0181	0	6000	0	0	1	0	1	-360	360;
	157	158	0.0002	0.0058	0	6000	0	0	0.9855	0	1	-360	360;
	160	161	0.0005	0.0141	0	6000	0	0	1.0588	0	1	-360	360;
	163	162	0	0.0195	0	6000	0	0	1	0	1	-360	360;
];

%%-----  OPF Data  -----%%
%% generator cost data
%	1	startup	shutdown	n	x1	y1	...	xn	yn
%	2	startup	shutdown	n	c(n-1)	...	c0
mpc.gencost = [
	2	0	0	3	0	27.2060684	14146.6598;
	2	0	0	3	0	25.3710833	11356.9747;
	2	0	0	3	0	24.2798041	9889.21336;
	2	0	0	3	0	18.0295805	7936.91874;
	2	0	0	3	0	22.7843236	5221.94759;
	2	0	0	3	0	4.46865147	39140.8124;
	2	0	0	3	0	24.7261705	11721.393;
	2	0	0	3	0	0	0;
	2	0	0	3	0	0	0;
	2	0	0	3	0	25.1073401	12168.6102;
	2	0	0	3	0	17.7078988	4681.11099;
	2	0	0	3	0	22.3140013	4047.00552;
	2	0	0	3	0	21.0857901	17618.2874;
	2	0	0	3	0	10.9259635	10608.4668;
	2	0	0	3	0	12.7797081	4103.20409;
	2	0	0	3	0	0	11209.6729;
	2	0	0	3	0	15.275318	4113.49321;
	2	0	0	3	0	4.80537302	10832.0019;
	2	0	0	3	0	1.98505061	24198.6452;
	2	0	0	3	0	15.2090268	4394.14646;
	2	0	0	3	0	24.8612688	4440.51339;
	2	0	0	3	0	0	3902.78158;
	2	0	0	3	0	0	6064.78349;
	2	0	0	3	0	24.6195125	3365.29328;
	2	0	0	3	0	19.115309	8000.71042;
	2	0	0	3	0	25.9148675	4971.07;
	2	0	0	3	0	24.3349678	4774.0899;
	2	0	0	3	0	26.1833883	6921.03153;
	2	0	0	3	0	25.5593992	6968.29846;
];

%% bus names
mpc.bus_name = {
	'CORONADO    ';
	'CHOLLA      ';
	'CORONADO    ';
	'CRAIG       ';
	'CRAIG       ';
	'FOURCORN    ';
	'FOURCORN    ';
	'FCNGN4CC    ';
	'FOURCORN    ';
	'HAYDEN      ';
	'NAVAJO      ';
	'NAVAJO 2    ';
	'MOENKOPI    ';
	'PALOVRD2    ';
	'PALOVRDE    ';
	'SAN JUAN    ';
	'SJUAN G4    ';
	'WESTWING    ';
	'NAVAJO1     ';
	'NAVAJO2     ';
	'NAVAJO3     ';
	'NAVAJO4     ';
	'MOENKOP1    ';
	'MOENKOP2    ';
	'MOENKOP3    ';
	'MOENKOP4    ';
	'FOURCOR1    ';
	'FOURCOR2    ';
	'CANAD G1    ';
	'CANADA      ';
	'CANALB      ';
	'CA230TO     ';
	'CA230       ';
	'CMAIN GM    ';
	'BRIDGER2    ';
	'ADELANTO    ';
	'ADELAN&1    ';
	'CASTAIC     ';
	'CASTAI4G    ';
	'GLENDAL     ';
	'HAYNES      ';
	'HAYNES3G    ';
	'INTERMT     ';
	'INTERM1G    ';
	'OLIVE       ';
	'OWENS G     ';
	'RINALDI     ';
	'RINALDI     ';
	'RIVER       ';
	'STA B       ';
	'STA B1      ';
	'STA B2      ';
	'STA BLD     ';
	'STA E       ';
	'STA E       ';
	'STA F       ';
	'STA G       ';
	'STA J       ';
	'SYLMARLA    ';
	'SYLMAR S    ';
	'VALLEY      ';
	'VICTORVL    ';
	'VICTORVL    ';
	'MONTA G1    ';
	'MONTANA     ';
	'BIG EDDY    ';
	'BIG EDDY    ';
	'BIG EDDY    ';
	'DALLES21    ';
	'CELILO      ';
	'CELILOCA    ';
	'COLSTRP     ';
	'COULEE      ';
	'GARRISON    ';
	'JOHN DAY    ';
	'JOHN DAY    ';
	'HANFORD     ';
	'NORTH G3    ';
	'NORTH       ';
	'BURNS       ';
	'GRIZZLY     ';
	'MALIN       ';
	'MIDPOINT    ';
	'MIDPOINT    ';
	'SUMMER L    ';
	'GRIZZLY1    ';
	'GRIZZLY2    ';
	'MALIN1      ';
	'MALIN2      ';
	'GRIZZLY3    ';
	'GRIZZLY4    ';
	'GRIZZLY5    ';
	'GRIZZLY6    ';
	'GRIZZLY7    ';
	'GRIZZLY8    ';
	'GRIZZLY9    ';
	'GRIZZLYA    ';
	'BURNS1      ';
	'CORTINA     ';
	'COTWDPGE    ';
	'DIABLO      ';
	'DIABLO1     ';
	'GATES       ';
	'GLENN       ';
	'LOGAN CR    ';
	'LOSBANOS    ';
	'MIDWAY      ';
	'MIDWAY      ';
	'MOSSLAND    ';
	'OLINDA      ';
	'ROUND MT    ';
	'ROUND MT    ';
	'ROUND MT    ';
	'TABLE MT    ';
	'TEVATR      ';
	'TEVATR      ';
	'TEVATR2     ';
	'TEVATR      ';
	'OLINDA1     ';
	'OLINDA2     ';
	'OLINDA3     ';
	'OLINDA4     ';
	'ROUND1      ';
	'ROUND2      ';
	'ROUND3      ';
	'ROUND4      ';
	'TABLE1      ';
	'TABLE2      ';
	'TABLE3      ';
	'TABLE4      ';
	'TEVATR1     ';
	'TEVATR2     ';
	'TEVATR3     ';
	'GATES1      ';
	'DEVERS      ';
	'EAGLROCK    ';
	'ELDORADO    ';
	'ELDORADO    ';
	'LITEHIPE    ';
	'LITEHIPE    ';
	'LUGO        ';
	'MESA CAL    ';
	'MIRALOMA    ';
	'MIRALOMA    ';
	'MIRALOMA    ';
	'MOHAVE      ';
	'MOHAV1CC    ';
	'PARDEE      ';
	'PARDEE      ';
	'SERRANO     ';
	'VALLEY      ';
	'VINCENT     ';
	'VINCENT     ';
	'CAMP WIL    ';
	'BENLOMND    ';
	'BENLOMND    ';
	'EMERY       ';
	'EMERY       ';
	'MONA        ';
	'NAUGHTON    ';
	'NAUGHT      ';
	'PINTO PS    ';
	'PINTO       ';
	'SPAN FRK    ';
	'SIGURD      ';
	'TERMINAL    ';
	'MALIN3      ';
	'MALIN4      ';
	'MALIN5      ';
	'MALIN6      ';
	'MALIN7      ';
	'MALIN8      ';
	'MIDWAY1     ';
	'MIDWAY2     ';
	'MIDWAY3     ';
	'MIDWAY4     ';
	'MIDWAY5     ';
	'MIDWAY6     ';
	'BURNS2      ';
};
